psse/psse-model/src/test/resources/IEEE_14_bus_completed_rev35_exported.rawx
{
  "network" : {
    "caseid" : {
      "fields" : [ "ic", "sbase", "rev", "xfrrat", "nxfrat", "basfrq", "title1", "title2" ],
      "data" : [ 0,100.0,35,0,0,60.0," 08/19/93 UW ARCHIVE           100.0  1962 W IEEE 14 Bus Test Case","" ]
    },
    "bus" : {
      "fields" : [ "ibus", "name", "baskv", "ide", "area", "zone", "owner", "vm", "va" ],
      "data" : [
        [ 1,"Bus 1       ",138.0,3,1,1,1,1.06,0.0 ],
        [ 2,"Bus 2       ",138.0,2,1,1,1,1.045,-4.9826 ],
        [ 3,"Bus 3       ",138.0,2,1,1,1,1.01,-12.725 ],
        [ 4,"Bus 4       ",138.0,1,1,1,1,1.01767,-10.3128 ],
        [ 5,"Bus 5       ",138.0,1,1,1,1,1.01951,-8.7738 ],
        [ 6,"Bus 6       ",138.0,2,1,1,1,1.07,-14.2209 ],
        [ 7,"Bus 7       ",138.0,1,1,1,1,1.06152,-13.3596 ],
        [ 8,"Bus 8       ",138.0,2,1,1,1,1.09,-13.3596 ],
        [ 9,"Bus 9       ",138.0,1,1,1,1,1.05593,-14.9385 ],
        [ 10,"Bus 10      ",138.0,1,1,1,1,1.05099,-15.0972 ],
        [ 11,"Bus 11      ",138.0,1,1,1,1,1.05691,-14.7906 ],
        [ 12,"Bus 12      ",138.0,1,1,1,1,1.05519,-15.0755 ],
        [ 13,"Bus 13      ",138.0,1,1,1,1,1.05038,-15.1562 ],
        [ 14,"Bus 14      ",138.0,1,1,1,1,1.03553,-16.0336 ]
      ]
    },
    "load" : {
      "fields" : [ "ibus", "loadid", "stat", "area", "zone", "pl", "ql", "ip", "iq", "yp", "yq", "owner", "scale" ],
      "data" : [
        [ 2,"1 ",1,1,1,21.7,12.7,0.0,0.0,0.0,-0.0,1,1 ],
        [ 3,"1 ",1,1,1,94.2,19.0,0.0,0.0,0.0,-0.0,1,1 ],
        [ 4,"1 ",1,1,1,47.8,-3.9,0.0,0.0,0.0,-0.0,1,1 ],
        [ 5,"1 ",1,1,1,7.6,1.6,0.0,0.0,0.0,-0.0,1,1 ],
        [ 6,"1 ",1,1,1,11.2,7.5,0.0,0.0,0.0,-0.0,1,1 ],
        [ 9,"1 ",1,1,1,29.5,16.6,0.0,0.0,0.0,-0.0,1,1 ],
        [ 10,"1 ",1,1,1,9.0,5.8,0.0,0.0,0.0,-0.0,1,1 ],
        [ 11,"1 ",1,1,1,3.5,1.8,0.0,0.0,0.0,-0.0,1,1 ],
        [ 12,"1 ",1,1,1,6.1,1.6,0.0,0.0,0.0,-0.0,1,1 ],
        [ 13,"1 ",1,1,1,13.5,5.8,0.0,0.0,0.0,-0.0,1,1 ],
        [ 14,"1 ",1,1,1,14.9,5.0,0.0,0.0,0.0,-0.0,1,1 ]
      ]
    },
    "fixshunt" : {
      "fields" : [ "ibus", "shntid", "stat", "gl", "bl" ],
      "data" : [
        [ 9," 1",1,0.0,19.0 ]
      ]
    },
    "generator" : {
      "fields" : [ "ibus", "machid", "pg", "qg", "qt", "qb", "vs", "ireg", "mbase", "zr", "zx", "rt", "xt", "gtap", "stat", "rmpct", "pt", "pb", "o1", "f1", "o2", "f2", "o3", "f3", "o4", "f4", "wmod", "wpf" ],
      "data" : [
        [ 1,"1 ",232.392,-16.549,0.0,0.0,1.06,0,615.0,0.0,1.0,0.0,0.0,1.0,1,100.0,10000.0,-10000.0,1,1.0,0,1.0,0,1.0,0,1.0,0,1.0 ],
        [ 2,"1 ",40.0,43.556,50.0,-40.0,1.045,0,60.0,0.0,1.0,0.0,0.0,1.0,1,100.0,10000.0,-10000.0,1,1.0,0,1.0,0,1.0,0,1.0,0,1.0 ],
        [ 3,"1 ",0.0,25.075,40.0,0.0,1.01,0,60.0,0.0,1.0,0.0,0.0,1.0,1,100.0,10000.0,-10000.0,1,1.0,0,1.0,0,1.0,0,1.0,0,1.0 ],
        [ 6,"1 ",0.0,12.73,24.0,-6.0,1.07,0,25.0,0.0,1.0,0.0,0.0,1.0,1,100.0,10000.0,-10000.0,1,1.0,0,1.0,0,1.0,0,1.0,0,1.0 ],
        [ 8,"1 ",0.0,17.623,24.0,-6.0,1.09,0,25.0,0.0,1.0,0.0,0.0,1.0,1,100.0,10000.0,-10000.0,1,1.0,0,1.0,0,1.0,0,1.0,0,1.0 ]
      ]
    },
    "acline" : {
      "fields" : [ "ibus", "jbus", "ckt", "rpu", "xpu", "bpu", "rate1", "rate2", "rate3", "gi", "bi", "gj", "bj", "stat", "met", "len", "o1", "f1", "o2", "f2", "o3", "f3", "o4", "f4" ],
      "data" : [
        [ 1,2,"1 ",0.01938,0.05917,0.0528,0.0,0.0,0.0,0.0,0.0,0.0,0.0,1,1,0.0,1,1.0,0,1.0,0,1.0,0,1.0 ],
        [ 1,5,"1 ",0.05403,0.22304,0.0492,0.0,0.0,0.0,0.0,0.0,0.0,0.0,1,1,0.0,1,1.0,0,1.0,0,1.0,0,1.0 ],
        [ 2,3,"1 ",0.04699,0.19797,0.0438,0.0,0.0,0.0,0.0,0.0,0.0,0.0,1,1,0.0,1,1.0,0,1.0,0,1.0,0,1.0 ],
        [ 2,4,"1 ",0.05811,0.17632,0.034,0.0,0.0,0.0,0.0,0.0,0.0,0.0,1,1,0.0,1,1.0,0,1.0,0,1.0,0,1.0 ],
        [ 2,5,"1 ",0.05695,0.17388,0.0346,0.0,0.0,0.0,0.0,0.0,0.0,0.0,1,1,0.0,1,1.0,0,1.0,0,1.0,0,1.0 ],
        [ 3,4,"1 ",0.06701,0.17103,0.0128,0.0,0.0,0.0,0.0,0.0,0.0,0.0,1,1,0.0,1,1.0,0,1.0,0,1.0,0,1.0 ],
        [ 4,5,"1 ",0.01335,0.04211,0.0,0.0,0.0,0.0,0.0,0.0,0.0,0.0,1,1,0.0,1,1.0,0,1.0,0,1.0,0,1.0 ],
        [ 6,11,"1 ",0.09498,0.1989,0.0,0.0,0.0,0.0,0.0,0.0,0.0,0.0,1,1,0.0,1,1.0,0,1.0,0,1.0,0,1.0 ],
        [ 6,12,"1 ",0.12291,0.25581,0.0,0.0,0.0,0.0,0.0,0.0,0.0,0.0,1,1,0.0,1,1.0,0,1.0,0,1.0,0,1.0 ],
        [ 6,13,"1 ",0.06615,0.13027,0.0,0.0,0.0,0.0,0.0,0.0,0.0,0.0,1,1,0.0,1,1.0,0,1.0,0,1.0,0,1.0 ],
        [ 7,8,"1 ",0.0,0.17615,0.0,0.0,0.0,0.0,0.0,0.0,0.0,0.0,1,1,0.0,1,1.0,0,1.0,0,1.0,0,1.0 ],
        [ 7,9,"1 ",0.0,0.11001,0.0,0.0,0.0,0.0,0.0,0.0,0.0,0.0,1,1,0.0,1,1.0,0,1.0,0,1.0,0,1.0 ],
        [ 9,10,"1 ",0.03181,0.0845,0.0,0.0,0.0,0.0,0.0,0.0,0.0,0.0,1,1,0.0,1,1.0,0,1.0,0,1.0,0,1.0 ],
        [ 9,14,"1 ",0.12711,0.27038,0.0,0.0,0.0,0.0,0.0,0.0,0.0,0.0,1,1,0.0,1,1.0,0,1.0,0,1.0,0,1.0 ],
        [ 10,11,"1 ",0.08205,0.19207,0.0,0.0,0.0,0.0,0.0,0.0,0.0,0.0,1,1,0.0,1,1.0,0,1.0,0,1.0,0,1.0 ],
        [ 12,13,"1 ",0.22092,0.19988,0.0,0.0,0.0,0.0,0.0,0.0,0.0,0.0,1,1,0.0,1,1.0,0,1.0,0,1.0,0,1.0 ],
        [ 13,14,"1 ",0.17093,0.34802,0.0,0.0,0.0,0.0,0.0,0.0,0.0,0.0,1,1,0.0,1,1.0,0,1.0,0,1.0,0,1.0 ]
      ]
    },
    "transformer" : {
      "fields" : [ "ibus", "jbus", "kbus", "ckt", "cw", "cz", "cm", "mag1", "mag2", "nmet", "name", "stat", "o1", "f1", "o2", "f2", "o3", "f3", "o4", "f4", "r1_2", "x1_2", "sbase1_2", "windv1", "nomv1", "ang1", "wdg1rate1", "wdg1rate2", "wdg1rate3", "cod1", "cont1", "rma1", "rmi1", "vma1", "vmi1", "ntp1", "tab1", "cr1", "cx1", "windv2", "nomv2" ],
      "data" : [
        [ 4,7,0,"1 ",1,1,1,0.0,0.0,2,"        ",1,1,1.0,0,1.0,0,1.0,0,1.0,0.0,0.20912,100.0,0.978,0.0,0.0,0.0,0.0,0.0,0,0,1.5,0.51,1.5,0.51,159,0,0.0,0.0,1.0,0.0 ],
        [ 4,9,0,"1 ",1,1,1,0.0,0.0,2,"        ",1,1,1.0,0,1.0,0,1.0,0,1.0,0.0,0.55618,100.0,0.969,0.0,0.0,0.0,0.0,0.0,0,0,1.5,0.51,1.5,0.51,159,0,0.0,0.0,1.0,0.0 ],
        [ 5,6,0,"1 ",1,1,1,0.0,0.0,2,"        ",1,1,1.0,0,1.0,0,1.0,0,1.0,0.0,0.25202,100.0,0.932,0.0,0.0,0.0,0.0,0.0,0,0,1.5,0.51,1.5,0.51,159,0,0.0,0.0,1.0,0.0 ]
      ]
    },
    "area" : {
      "fields" : [ "iarea", "isw", "pdes", "ptol", "arname" ],
      "data" : [
        [ 1,2,0.0,999.99,"IEEE14      " ]
      ]
    },
    "twotermdc" : {
      "fields" : [ "name", "mdc", "rdc", "setvl", "vschd", "vcmod", "rcomp", "delti", "met", "dcvmin", "cccitmx", "cccacc", "ipr", "nbr", "anmxr", "anmnr", "rcr", "xcr", "ebasr", "trr", "tapr", "tmxr", "tmnr", "stpr", "icr", "ndr", "ifr", "itr", "idr", "xcapr", "ipi", "nbi", "anmxi", "anmni", "rci", "xci", "ebasi", "tri", "tapi", "tmxi", "tmni", "stpi", "ici", "ndi", "ifi", "iti", "idi", "xcapi" ],
      "data" : [
        [ "EATL P1     ",0,7.365,0.0,500.0,0.0,7.365,0.1,"R",0.0,50,1.0,10,1,17.3,12.7,0.48,21.32,500.0,0.832,1.1,1.2,0.975,0.0125,0,0,0,0,"1 ",0.0,12,1,20.5,18.0,0.48,21.32,240.0,1.7325,1.1419,1.2064,0.8968,0.0129,0,0,0,0,"1 ",0.0 ],
        [ "WATL P1     ",1,5.125,280.0,500.0,0.0,5.125,0.1,"R",0.0,20,1.0,12,1,17.3,12.7,0.44,21.32,500.0,0.832,1.125,1.2,0.975,0.0125,0,0,0,0,"1 ",0.0,14,1,20.5,17.9,0.44,21.32,240.0,1.7325,1.1032,1.2064,0.8968,0.0129,0,0,0,0,"1 ",0.0 ]
      ]
    },
    "vscdc" : {
      "fields" : [ "name", "mdc", "rdc", "o1", "f1", "o2", "f2", "o3", "f3", "o4", "f4", "ibus1", "type1", "mode1", "dcset1", "acset1", "aloss1", "bloss1", "minloss1", "smax1", "imax1", "pwf1", "maxq1", "minq1", "vsreg1", "nreg1", "rmpct1", "ibus2", "type2", "mode2", "dcset2", "acset2", "aloss2", "bloss2", "minloss2", "smax2", "imax2", "pwf2", "maxq2", "minq2", "vsreg2", "nreg2", "rmpct2" ],
      "data" : [
        [ "VDCLINE1",1,0.71,1,0.3204,2,0.3883,3,0.1942,4,0.0971,7,2,2,-209.0,0.95,100.0,0.1,50.0,400.0,1200.0,0.1,100.0,-110.0,7,0,100.0,9,1,1,100.0,0.99,90.0,0.15,40.0,350.0,1200.0,0.15,150.0,-140.0,9,0,100.0 ],
        [ "VDCLINE2",1,0.35,1,0.3705,2,0.3597,3,0.1799,4,0.0899,11,2,1,-100.0,1.0,100.0,0.15,123.0,200.0,1200.0,1.0,200.0,-150.0,11,0,100.0,13,1,1,100.0,1.0,93.0,0.12,98.0,250.0,1250.0,1.0,225.0,-250.0,13,0,99.0 ]
      ]
    },
    "impcor" : {
      "fields" : [ "itable", "tap", "refact", "imfact" ],
      "data" : [
        [ 1,-30.0,1.1,0.1 ],
        [ 1,-24.0,1.091,0.0 ],
        [ 1,30.0,1.11,0.0 ],
        [ 2,0.6,1.06,0.0 ],
        [ 2,0.7,1.07,0.0 ],
        [ 2,0.8,1.08,0.0 ],
        [ 2,0.9,1.09,0.1 ]
      ]
    },
    "ntermdc" : {
      "fields" : [ "name", "nconv", "ndcbs", "ndcln", "mdc", "vconv", "vcmod", "vconvn" ],
      "data" : [
        [ "MULTERM_DC_1",4,5,4,1,212,400.0,0 ]
      ]
    },
    "ntermdcconv" : {
      "fields" : [ "name", "ib", "n", "angmx", "angmn", "rc", "xc", "ebas", "tr", "tap", "tpmx", "tpmn", "tstp", "setvl", "dcpf", "marg", "cnvcod" ],
      "data" : [
        [ "MULTERM_DC_1",20,4,10.0,8.0,0.0,19.0,500.0,0.22,1.01,1.1,0.97,0.01,321.0,1.0,0.15,3 ],
        [ "MULTERM_DC_1",21,4,10.0,8.0,0.0,19.0,500.0,0.22,1.01,1.1,0.97,0.01,321.0,1.0,0.15,3 ],
        [ "MULTERM_DC_1",22,4,10.0,8.0,0.0,19.0,500.0,0.22,1.01,1.1,0.97,0.01,321.0,1.0,0.15,3 ],
        [ "MULTERM_DC_1",23,4,20.0,18.0,0.0,10.0,230.0,0.452,1.1,1.1,0.9,0.01,-303.8,1.0,0.0,4 ]
      ]
    },
    "ntermdcbus" : {
      "fields" : [ "name", "idc", "ib", "area", "zone", "dcname", "idc2", "rgrnd", "owner" ],
      "data" : [
        [ "MULTERM_DC_1",1,401,4,4,"DC1",0,0.0,4 ],
        [ "MULTERM_DC_1",2,401,4,4,"DC2",0,0.0,4 ],
        [ "MULTERM_DC_1",3,401,4,4,"DC3",0,0.0,4 ],
        [ "MULTERM_DC_1",4,401,4,4,"DC4",0,0.0,4 ],
        [ "MULTERM_DC_1",5,0,4,4,"DC5",0,0.0,4 ]
      ]
    },
    "ntermdclink" : {
      "fields" : [ "name", "idc", "jdc", "dcckt", "met", "rdc", "ldc" ],
      "data" : [
        [ "MULTERM_DC_1",1,5,"1",1,29.0,0.0 ],
        [ "MULTERM_DC_1",2,5,"1",1,29.0,0.0 ],
        [ "MULTERM_DC_1",3,5,"1",1,29.0,0.0 ],
        [ "MULTERM_DC_1",4,5,"1",1,29.0,0.0 ]
      ]
    },
    "msline" : {
      "fields" : [ "ibus", "jbus", "mslid", "met", "dum1", "dum2", "dum3", "dum4", "dum5", "dum6", "dum7", "dum8", "dum9" ],
      "data" : [
        [ 1,2,"&1",2,102,103,104,null,null,null,null,null,null ],
        [ 1,5,"&1",2,121,122,123,124,125,126,127,128,129 ]
      ]
    },
    "zone" : {
      "fields" : [ "izone", "zoname" ],
      "data" : [
        [ 1,"IEEE 14 " ]
      ]
    },
    "iatransfer" : {
      "fields" : [ "arfrom", "arto", "trid", "ptran" ],
      "data" : [
        [ 1,2,"A",1000.0 ],
        [ 3,5,"D",2900.0 ]
      ]
    },
    "owner" : {
      "fields" : [ "iowner", "owname" ],
      "data" : [
        [ 1,"1" ]
      ]
    },
    "facts" : {
      "fields" : [ "name", "ibus", "jbus", "mode", "pdes", "qdes", "vset", "shmx", "trmx", "vtmn", "vtmx", "vsmx", "imx", "linx", "rmpct", "owner", "set1", "set2", "vsref", "fcreg", "nreg", "mname" ],
      "data" : [
        [ "FACTS_DVCE_1",5,0,1,0.0,0.0,1.015,50.0,100.0,0.9263,1.134,1.0,0.0,0.05652,100.0,1,0.0,0.0,0,5,0,"" ],
        [ "FACTS_DVCE_2",7,0,1,350.0,40.0,1.015,25.0,9999.0,0.9,1.1,1.0,0.0,0.05,100.0,1,0.0,0.0,0,7,0,"" ]
      ]
    },
    "gne" : {
      "fields" : [ "name", "model", "nterm", "bus1", "bus2", "nreal", "nintg", "nchar", "stat", "owner", "nmet", "real1", "real2", "real3", "real4", "real5", "real6", "real7", "real8", "real9", "real10", "intg1", "intg2", "intg3", "intg4", "intg5", "intg6", "intg7", "intg8", "intg9", "intg10", "char1", "char2", "char3", "char4", "char5", "char6", "char7", "char8", "char9", "char10" ],
      "data" : [
        [ "GNE-1","boslModel",1,153,0,3,3,3,1,1,153,99.0,100.0,101.0,0.0,0.0,0.0,0.0,0.0,0.0,0.0,153,154,155,0,0,0,0,0,0,0,"A1","A2","A3","1","1","1","1","1","1","1" ]
      ]
    },
    "indmach" : {
      "fields" : [ "ibus", "imid", "stat", "scode", "dcode", "area", "zone", "owner", "tcode", "bcode", "mbase", "ratekv", "pcode", "pset", "hconst", "aconst", "bconst", "dconst", "econst", "ra", "xa", "xm", "r1", "x1", "r2", "x2", "x3", "e1", "se1", "e2", "se2", "ia1", "ia2", "xamult" ],
      "data" : [
        [ 3010,"1",1,1,2,5,4,5,1,1,1.0,21.6,1,1.0,1.0,1.0,1.0,1.0,1.0,0.0,0.0,2.5,999.0,999.0,999.0,999.0,0.0,1.0,0.0,1.2,0.0,0.0,0.0,1.0 ],
        [ 93002,"1 ",1,1,2,5,6,5,1,2,5.62,0.69,2,-5.0,1.0,1.0,1.0,-1.0,1.0,0.0,0.0,2.5,999.0,999.0,999.0,999.0,0.0,1.0,0.0,1.2,0.0,0.0,0.0,1.0 ]
      ]
    }
  }
}
